<routes>
	<vehicle depart="0.1" departLane="0" departPos="78.6380309732881" departSpeed="9.726364589506275" id="201" type="passenger">
		<route edges="49574 gneE2 -gneE0 49576" />
	</vehicle>
	<vehicle depart="0.1" departLane="0" departPos="3.8776596362260136" departSpeed="8.858108347530319" id="202" type="passenger">
		<route edges="49574 gneE2 -gneE0 49576" />
	</vehicle>
	<vehicle depart="0.1" departLane="0" departPos="18.689408414370675" departSpeed="9.111635389212005" id="203" type="passenger">
		<route edges="49564 gneE1 -gneE3 49568" />
	</vehicle>
</routes>