<routes>
	<vehicle depart="0.1" departLane="0" departPos="78.59101839847243" departSpeed="9.165234343088038" id="201" type="passenger">
		<route edges="49578 gneE0 -gneE1 49566" />
	</vehicle>
	<vehicle depart="0.1" departLane="0" departPos="40.15698286691836" departSpeed="6.434367383760499" id="202" type="passenger">
		<route edges="49578 gneE0 -gneE1 49566" />
	</vehicle>
	<vehicle depart="0.1" departLane="0" departPos="22.55934191457267" departSpeed="7.343950189319802" id="203" type="passenger">
		<route edges="49578 gneE0 -gneE1 49566" />
	</vehicle>
	<vehicle depart="0.1" departLane="0" departPos="12.446901168394788" departSpeed="7.214408621921633" id="204" type="passenger">
		<route edges="49564 gneE1 -gneE3 49568" />
	</vehicle>
</routes>