<routes>
	<vehicle depart="0.1" departLane="0" departPos="77.67293921709303" departSpeed="8.96158621439507" id="201" type="passenger">
		<route edges="49574 gneE2 -gneE0 49576" />
	</vehicle>
	<vehicle depart="0.1" departLane="0" departPos="53.275340585646596" departSpeed="6.8624502342231235" id="202" type="passenger">
		<route edges="49574 gneE2 -gneE1 49566" />
	</vehicle>
	<vehicle depart="0.1" departLane="0" departPos="25.49961936568249" departSpeed="9.698214210632983" id="203" type="passenger">
		<route edges="49574 gneE2 -gneE0 49576" />
	</vehicle>
	<vehicle depart="0.1" departLane="0" departPos="2.552008138179886" departSpeed="8.102630276731876" id="204" type="passenger">
		<route edges="49578 gneE0 -gneE3 49568" />
	</vehicle>
</routes>