<routes>
	<vehicle depart="0.1" departLane="0" departPos="93.12775033817091" departSpeed="6.6232314667429755" id="201" type="passenger">
		<route edges="49574 gneE2 -gneE0 49576" />
	</vehicle>
	<vehicle depart="0.1" departLane="0" departPos="76.3246309437276" departSpeed="7.261045056014588" id="202" type="passenger">
		<route edges="49574 gneE2 -gneE1 49566" />
	</vehicle>
	<vehicle depart="0.1" departLane="0" departPos="36.808001540480404" departSpeed="7.966285673342444" id="203" type="passenger">
		<route edges="49574 gneE2 -gneE0 49576" />
	</vehicle>
	<vehicle depart="0.1" departLane="0" departPos="35.301807893539646" departSpeed="7.476392082069278" id="204" type="passenger">
		<route edges="49578 gneE0 -gneE1 49566" />
	</vehicle>
	<vehicle depart="0.1" departLane="0" departPos="57.81263584722302" departSpeed="7.356827108757907" id="205" type="passenger">
		<route edges="49564 gneE1 -gneE3 49568" />
	</vehicle>
	<vehicle depart="0.1" departLane="0" departPos="37.2603607850141" departSpeed="8.40101162879174" id="206" type="passenger">
		<route edges="49564 gneE1 -gneE3 49568" />
	</vehicle>
</routes>