<routes>
	<vehicle depart="0.1" departLane="0" departPos="32.540758468426716" departSpeed="7.644434293149319" id="201" type="passenger">
		<route edges="49574 gneE2 -gneE0 49576" />
	</vehicle>
	<vehicle depart="0.1" departLane="0" departPos="13.421318731052637" departSpeed="7.548455062739457" id="202" type="passenger">
		<route edges="49578 gneE0 -gneE1 49566" />
	</vehicle>
	<vehicle depart="0.1" departLane="0" departPos="104.3853441190308" departSpeed="6.370045673546294" id="203" type="passenger">
		<route edges="49564 gneE1 -gneE2 49572" />
	</vehicle>
	<vehicle depart="0.1" departLane="0" departPos="18.55601723822781" departSpeed="6.146407945844751" id="204" type="passenger">
		<route edges="49564 gneE1 -gneE2 49572" />
	</vehicle>
</routes>