<routes>
	<vehicle depart="0.1" departLane="0" departPos="85.8756222140436" departSpeed="6.977209699629112" id="201" type="passenger">
		<route edges="49574 gneE2 -gneE1 49566" />
	</vehicle>
	<vehicle depart="0.1" departLane="0" departPos="15.638726080735466" departSpeed="6.606796256786585" id="202" type="passenger">
		<route edges="49578 gneE0 -gneE3 49568" />
	</vehicle>
	<vehicle depart="0.1" departLane="0" departPos="66.8981619200172" departSpeed="6.213211435459737" id="203" type="passenger">
		<route edges="49564 gneE1 -gneE3 49568" />
	</vehicle>
	<vehicle depart="0.1" departLane="0" departPos="8.490786754194971" departSpeed="8.014733526142823" id="204" type="passenger">
		<route edges="49564 gneE1 -gneE3 49568" />
	</vehicle>
</routes>