<routes>
	<vehicle depart="0.1" departLane="0" departPos="58.73601533284257" departSpeed="9.576144298037148" id="201" type="passenger">
		<route edges="49574 gneE2 -gneE0 49576" />
	</vehicle>
	<vehicle depart="0.1" departLane="0" departPos="104.12007442506066" departSpeed="8.0325707727786" id="202" type="passenger">
		<route edges="49564 gneE1 -gneE2 49572" />
	</vehicle>
	<vehicle depart="0.1" departLane="0" departPos="50.400334559461655" departSpeed="7.585375687576386" id="203" type="passenger">
		<route edges="49564 gneE1 -gneE3 49568" />
	</vehicle>
</routes>