<routes>
	<vehicle depart="0.1" departLane="0" departPos="85.8465492695219" departSpeed="6.34645922295323" id="201" type="passenger">
		<route edges="49574 gneE2 -gneE1 49566" />
	</vehicle>
	<vehicle depart="0.1" departLane="0" departPos="33.27077275026126" departSpeed="6.5043645940469155" id="202" type="passenger">
		<route edges="49574 gneE2 -gneE0 49576" />
	</vehicle>
	<vehicle depart="0.1" departLane="0" departPos="7.734578528854303" departSpeed="8.977655991013663" id="203" type="passenger">
		<route edges="49574 gneE2 -gneE1 49566" />
	</vehicle>
	<vehicle depart="0.1" departLane="0" departPos="36.78762257126843" departSpeed="8.514993538023958" id="204" type="passenger">
		<route edges="49578 gneE0 -gneE3 49568" />
	</vehicle>
	<vehicle depart="0.1" departLane="0" departPos="53.9867066340654" departSpeed="7.49823880925331" id="205" type="passenger">
		<route edges="49564 gneE1 -gneE2 49572" />
	</vehicle>
</routes>