<routes>
	<vehicle depart="0.1" departLane="0" departPos="76.165666627307" departSpeed="9.513736578394141" id="201" type="passenger">
		<route edges="49574 gneE2 -gneE0 49576" />
	</vehicle>
	<vehicle depart="0.1" departLane="0" departPos="88.52498432136382" departSpeed="6.137291374887413" id="202" type="passenger">
		<route edges="49564 gneE1 -gneE3 49568" />
	</vehicle>
	<vehicle depart="0.1" departLane="0" departPos="45.456975475670966" departSpeed="6.848042214315257" id="203" type="passenger">
		<route edges="49564 gneE1 -gneE3 49568" />
	</vehicle>
	<vehicle depart="0.1" departLane="0" departPos="21.72040694787981" departSpeed="8.867370169041985" id="204" type="passenger">
		<route edges="49564 gneE1 -gneE2 49572" />
	</vehicle>
</routes>