<routes>
	<vehicle depart="0.1" departLane="0" departPos="78.68492460701472" departSpeed="6.384204753804935" id="201" type="passenger">
		<route edges="49574 gneE2 -gneE0 49576" />
	</vehicle>
	<vehicle depart="0.1" departLane="0" departPos="47.57740810553682" departSpeed="6.300611286080047" id="202" type="passenger">
		<route edges="49574 gneE2 -gneE1 49566" />
	</vehicle>
	<vehicle depart="0.1" departLane="0" departPos="11.429912366215184" departSpeed="8.854169863503849" id="203" type="passenger">
		<route edges="49574 gneE2 -gneE1 49566" />
	</vehicle>
	<vehicle depart="0.1" departLane="0" departPos="70.77204366826464" departSpeed="7.683690046848074" id="204" type="passenger">
		<route edges="49578 gneE0 -gneE1 49566" />
	</vehicle>
</routes>