<routes>
	<vehicle depart="0.1" departLane="0" departPos="90.81076762648377" departSpeed="7.101384393843687" id="201" type="passenger">
		<route edges="49574 gneE2 -gneE1 49566" />
	</vehicle>
	<vehicle depart="0.1" departLane="0" departPos="76.33402401624984" departSpeed="8.948310582714512" id="202" type="passenger">
		<route edges="49578 gneE0 -gneE1 49566" />
	</vehicle>
	<vehicle depart="0.1" departLane="0" departPos="44.51578073554958" departSpeed="9.145818751736275" id="203" type="passenger">
		<route edges="49578 gneE0 -gneE1 49566" />
	</vehicle>
	<vehicle depart="0.1" departLane="0" departPos="25.185092508565653" departSpeed="8.409435112613565" id="204" type="passenger">
		<route edges="49578 gneE0 -gneE3 49568" />
	</vehicle>
	<vehicle depart="0.1" departLane="0" departPos="80.12794341189729" departSpeed="7.925000143204736" id="205" type="passenger">
		<route edges="49564 gneE1 -gneE2 49572" />
	</vehicle>
</routes>