<routes>
	<vehicle depart="0.1" departLane="0" departPos="92.20134161509112" departSpeed="6.768759839581812" id="201" type="passenger">
		<route edges="49574 gneE2 -gneE1 49566" />
	</vehicle>
	<vehicle depart="0.1" departLane="0" departPos="50.12946272594916" departSpeed="6.991215164096646" id="202" type="passenger">
		<route edges="49578 gneE0 -gneE3 49568" />
	</vehicle>
</routes>