<routes>
	<vehicle depart="0.1" departLane="0" departPos="22.457853422526128" departSpeed="9.27402468410161" id="201" type="passenger">
		<route edges="49578 gneE0 -gneE3 49568" />
	</vehicle>
	<vehicle depart="0.1" departLane="0" departPos="107.21646624925577" departSpeed="9.17308360408943" id="202" type="passenger">
		<route edges="49564 gneE1 -gneE3 49568" />
	</vehicle>
	<vehicle depart="0.1" departLane="0" departPos="44.42114549043408" departSpeed="7.111542593319637" id="203" type="passenger">
		<route edges="49564 gneE1 -gneE3 49568" />
	</vehicle>
</routes>