<routes>
	<vehicle depart="0.1" departLane="0" departPos="23.500334980271347" departSpeed="8.446731982086963" id="201" type="passenger">
		<route edges="49574 gneE2 -gneE0 49576" />
	</vehicle>
	<vehicle depart="0.1" departLane="0" departPos="117.98572124498685" departSpeed="7.102611134211534" id="202" type="passenger">
		<route edges="49564 gneE1 -gneE3 49568" />
	</vehicle>
	<vehicle depart="0.1" departLane="0" departPos="70.35487092117675" departSpeed="6.97365069424957" id="203" type="passenger">
		<route edges="49564 gneE1 -gneE2 49572" />
	</vehicle>
	<vehicle depart="0.1" departLane="0" departPos="25.69924881330617" departSpeed="8.831331165506048" id="204" type="passenger">
		<route edges="49564 gneE1 -gneE2 49572" />
	</vehicle>
</routes>