<routes>
	<vehicle depart="0.1" departLane="0" departPos="71.62051336231127" departSpeed="8.33516318653384" id="201" type="passenger">
		<route edges="49578 gneE0 -gneE3 49568" />
	</vehicle>
	<vehicle depart="0.1" departLane="0" departPos="12.335374028549637" departSpeed="9.903622439763625" id="202" type="passenger">
		<route edges="49578 gneE0 -gneE3 49568" />
	</vehicle>
	<vehicle depart="0.1" departLane="0" departPos="21.402449172514764" departSpeed="6.537377001718507" id="203" type="passenger">
		<route edges="49564 gneE1 -gneE3 49568" />
	</vehicle>
</routes>