<routes>
	<vehicle depart="0.1" departLane="0" departPos="70.58941770471831" departSpeed="9.046900416548318" id="201" type="passenger">
		<route edges="49574 gneE2 -gneE1 49566" />
	</vehicle>
	<vehicle depart="0.1" departLane="0" departPos="49.31273957842464" departSpeed="8.963926414185377" id="202" type="passenger">
		<route edges="49574 gneE2 -gneE0 49576" />
	</vehicle>
	<vehicle depart="0.1" departLane="0" departPos="110.41175507577805" departSpeed="8.34883407073628" id="203" type="passenger">
		<route edges="49564 gneE1 -gneE2 49572" />
	</vehicle>
</routes>