<routes>
	<vehicle depart="0.1" departLane="0" departPos="55.5516380108011" departSpeed="6.334030127026104" id="201" type="passenger">
		<route edges="49574 gneE2 -gneE1 49566" />
	</vehicle>
	<vehicle depart="0.1" departLane="0" departPos="64.58875008078331" departSpeed="7.168827413624934" id="202" type="passenger">
		<route edges="49578 gneE0 -gneE3 49568" />
	</vehicle>
	<vehicle depart="0.1" departLane="0" departPos="111.2512003096827" departSpeed="7.059560788017865" id="203" type="passenger">
		<route edges="49564 gneE1 -gneE3 49568" />
	</vehicle>
	<vehicle depart="0.1" departLane="0" departPos="85.6748734748095" departSpeed="7.920481508470504" id="204" type="passenger">
		<route edges="49564 gneE1 -gneE2 49572" />
	</vehicle>
	<vehicle depart="0.1" departLane="0" departPos="27.715315630477804" departSpeed="8.364506173434531" id="205" type="passenger">
		<route edges="49564 gneE1 -gneE2 49572" />
	</vehicle>
</routes>