<routes>
	<vehicle depart="0.1" departLane="0" departPos="46.203864175206995" departSpeed="6.892727248593619" id="201" type="passenger">
		<route edges="49574 gneE2 -gneE0 49576" />
	</vehicle>
	<vehicle depart="0.1" departLane="0" departPos="3.9330921417305973" departSpeed="7.567609931678633" id="202" type="passenger">
		<route edges="49574 gneE2 -gneE1 49566" />
	</vehicle>
	<vehicle depart="0.1" departLane="0" departPos="77.32338296201328" departSpeed="7.6729317213651" id="203" type="passenger">
		<route edges="49578 gneE0 -gneE1 49566" />
	</vehicle>
	<vehicle depart="0.1" departLane="0" departPos="44.17417137866822" departSpeed="8.783362276945628" id="204" type="passenger">
		<route edges="49578 gneE0 -gneE1 49566" />
	</vehicle>
	<vehicle depart="0.1" departLane="0" departPos="20.479505910739118" departSpeed="6.930316546691414" id="205" type="passenger">
		<route edges="49578 gneE0 -gneE3 49568" />
	</vehicle>
</routes>