<routes>
	<vehicle depart="0.1" departLane="0" departPos="63.99046576567538" departSpeed="9.546937405847574" id="201" type="passenger">
		<route edges="49578 gneE0 -gneE3 49568" />
	</vehicle>
	<vehicle depart="0.1" departLane="0" departPos="103.48828789648529" departSpeed="9.443597545643383" id="202" type="passenger">
		<route edges="49564 gneE1 -gneE2 49572" />
	</vehicle>
	<vehicle depart="0.1" departLane="0" departPos="20.810539768011125" departSpeed="7.637835845252026" id="203" type="passenger">
		<route edges="49564 gneE1 -gneE3 49568" />
	</vehicle>
	<vehicle depart="0.1" departLane="0" departPos="1.1437469112992602" departSpeed="6.391159718714856" id="204" type="passenger">
		<route edges="49564 gneE1 -gneE2 49572" />
	</vehicle>
</routes>