<routes>
	<vehicle depart="0.1" departLane="0" departPos="47.39637870761226" departSpeed="6.459811153895794" id="201" type="passenger">
		<route edges="49574 gneE2 -gneE1 49566" />
	</vehicle>
	<vehicle depart="0.1" departLane="0" departPos="73.23559371696439" departSpeed="7.666648534747182" id="202" type="passenger">
		<route edges="49578 gneE0 -gneE1 49566" />
	</vehicle>
	<vehicle depart="0.1" departLane="0" departPos="51.23534287657495" departSpeed="8.419052948921003" id="203" type="passenger">
		<route edges="49564 gneE1 -gneE2 49572" />
	</vehicle>
</routes>