<routes>
	<vehicle depart="0.1" departLane="0" departPos="7.681013707329583" departSpeed="7.4901018602477905" id="201" type="passenger">
		<route edges="49574 gneE2 -gneE0 49576" />
	</vehicle>
	<vehicle depart="0.1" departLane="0" departPos="29.386604660547036" departSpeed="8.828586917972105" id="202" type="passenger">
		<route edges="49578 gneE0 -gneE3 49568" />
	</vehicle>
	<vehicle depart="0.1" departLane="0" departPos="14.091562316478305" departSpeed="6.756953895654078" id="203" type="passenger">
		<route edges="49578 gneE0 -gneE3 49568" />
	</vehicle>
	<vehicle depart="0.1" departLane="0" departPos="103.43985810063649" departSpeed="6.529860900673453" id="204" type="passenger">
		<route edges="49564 gneE1 -gneE3 49568" />
	</vehicle>
	<vehicle depart="0.1" departLane="0" departPos="24.219363379219928" departSpeed="6.7410080304710895" id="205" type="passenger">
		<route edges="49564 gneE1 -gneE3 49568" />
	</vehicle>
</routes>