<routes>
	<vehicle depart="0.1" departLane="0" departPos="81.84706677513198" departSpeed="8.077999888807847" id="201" type="passenger">
		<route edges="49578 gneE0 -gneE3 49568" />
	</vehicle>
	<vehicle depart="0.1" departLane="0" departPos="44.369924728820564" departSpeed="9.252528805657" id="202" type="passenger">
		<route edges="49564 gneE1 -gneE3 49568" />
	</vehicle>
</routes>