<routes>
	<vehicle depart="0.1" departLane="0" departPos="79.04527480487576" departSpeed="6.347452031813351" id="201" type="passenger">
		<route edges="49574 gneE2 -gneE0 49576" />
	</vehicle>
	<vehicle depart="0.1" departLane="0" departPos="26.54808800609691" departSpeed="9.87704556441128" id="202" type="passenger">
		<route edges="49574 gneE2 -gneE0 49576" />
	</vehicle>
	<vehicle depart="0.1" departLane="0" departPos="13.963027245288778" departSpeed="6.188007069306392" id="203" type="passenger">
		<route edges="49574 gneE2 -gneE1 49566" />
	</vehicle>
	<vehicle depart="0.1" departLane="0" departPos="32.57120520448585" departSpeed="9.724521300979092" id="204" type="passenger">
		<route edges="49578 gneE0 -gneE3 49568" />
	</vehicle>
	<vehicle depart="0.1" departLane="0" departPos="49.86348291243063" departSpeed="6.476804253636113" id="205" type="passenger">
		<route edges="49564 gneE1 -gneE3 49568" />
	</vehicle>
	<vehicle depart="0.1" departLane="0" departPos="21.54434987018027" departSpeed="7.574097728229003" id="206" type="passenger">
		<route edges="49564 gneE1 -gneE2 49572" />
	</vehicle>
</routes>