<routes>
	<vehicle depart="0.1" departLane="0" departPos="105.50521950760904" departSpeed="7.7174587990030385" id="201" type="passenger">
		<route edges="49564 gneE1 -gneE2 49572" />
	</vehicle>
	<vehicle depart="0.1" departLane="0" departPos="17.209913653640626" departSpeed="6.178816466595883" id="202" type="passenger">
		<route edges="49564 gneE1 -gneE2 49572" />
	</vehicle>
</routes>