<routes>
	<vehicle depart="0.1" departLane="0" departPos="5.372551903809708" departSpeed="7.607313434514653" id="201" type="passenger">
		<route edges="49574 gneE2 -gneE0 49576" />
	</vehicle>
	<vehicle depart="0.1" departLane="0" departPos="107.35178388048931" departSpeed="8.674555565168687" id="202" type="passenger">
		<route edges="49564 gneE1 -gneE2 49572" />
	</vehicle>
	<vehicle depart="0.1" departLane="0" departPos="81.55419355828867" departSpeed="7.552121398211474" id="203" type="passenger">
		<route edges="49564 gneE1 -gneE2 49572" />
	</vehicle>
	<vehicle depart="0.1" departLane="0" departPos="17.760933167255416" departSpeed="9.310731550433314" id="204" type="passenger">
		<route edges="49564 gneE1 -gneE3 49568" />
	</vehicle>
</routes>