<routes>
	<vehicle depart="0.1" departLane="0" departPos="76.84497101062746" departSpeed="9.66495630256632" id="201" type="passenger">
		<route edges="49574 gneE2 -gneE0 49576" />
	</vehicle>
	<vehicle depart="0.1" departLane="0" departPos="31.111021123855494" departSpeed="7.045088178328587" id="202" type="passenger">
		<route edges="49574 gneE2 -gneE0 49576" />
	</vehicle>
	<vehicle depart="0.1" departLane="0" departPos="111.50220668202454" departSpeed="7.422219785538951" id="203" type="passenger">
		<route edges="49564 gneE1 -gneE3 49568" />
	</vehicle>
	<vehicle depart="0.1" departLane="0" departPos="1.9448078692032453" departSpeed="9.166452613011575" id="204" type="passenger">
		<route edges="49564 gneE1 -gneE2 49572" />
	</vehicle>
</routes>