<routes>
	<vehicle depart="0.1" departLane="0" departPos="82.05597870721218" departSpeed="6.938590886784793" id="201" type="passenger">
		<route edges="49578 gneE0 -gneE3 49568" />
	</vehicle>
	<vehicle depart="0.1" departLane="0" departPos="47.24828002602521" departSpeed="6.557346886135383" id="202" type="passenger">
		<route edges="49578 gneE0 -gneE1 49566" />
	</vehicle>
	<vehicle depart="0.1" departLane="0" departPos="21.183770654078018" departSpeed="8.79497541765796" id="203" type="passenger">
		<route edges="49564 gneE1 -gneE3 49568" />
	</vehicle>
</routes>