<routes>
	<vehicle depart="0.1" departLane="0" departPos="89.870320441294" departSpeed="6.066243244737018" id="201" type="passenger">
		<route edges="49574 gneE2 -gneE1 49566" />
	</vehicle>
	<vehicle depart="0.1" departLane="0" departPos="45.57537487773271" departSpeed="8.373904463921896" id="202" type="passenger">
		<route edges="49564 gneE1 -gneE2 49572" />
	</vehicle>
</routes>