<routes>
	<vehicle depart="0.1" departLane="0" departPos="82.17355987762977" departSpeed="6.062566714921946" id="201" type="passenger">
		<route edges="49574 gneE2 -gneE0 49576" />
	</vehicle>
	<vehicle depart="0.1" departLane="0" departPos="33.78595357987393" departSpeed="6.02307157355326" id="202" type="passenger">
		<route edges="49564 gneE1 -gneE2 49572" />
	</vehicle>
</routes>