<routes>
	<vehicle depart="0.1" departLane="0" departPos="62.444117956180776" departSpeed="7.7660752160027915" id="201" type="passenger">
		<route edges="49574 gneE2 -gneE1 49566" />
	</vehicle>
	<vehicle depart="0.1" departLane="0" departPos="31.324605854592576" departSpeed="8.266841945544328" id="202" type="passenger">
		<route edges="49574 gneE2 -gneE1 49566" />
	</vehicle>
	<vehicle depart="0.1" departLane="0" departPos="9.166434999465217" departSpeed="8.143809412290802" id="203" type="passenger">
		<route edges="49574 gneE2 -gneE0 49576" />
	</vehicle>
	<vehicle depart="0.1" departLane="0" departPos="81.50320905592629" departSpeed="8.214461212172822" id="204" type="passenger">
		<route edges="49578 gneE0 -gneE1 49566" />
	</vehicle>
	<vehicle depart="0.1" departLane="0" departPos="32.97085469317128" departSpeed="8.971011713287826" id="205" type="passenger">
		<route edges="49578 gneE0 -gneE3 49568" />
	</vehicle>
</routes>