<routes>
	<vehicle depart="0.1" departLane="0" departPos="77.96781277236359" departSpeed="9.588984441949592" id="201" type="passenger">
		<route edges="49574 gneE2 -gneE0 49576" />
	</vehicle>
	<vehicle depart="0.1" departLane="0" departPos="36.25178717482876" departSpeed="6.1031673458784805" id="202" type="passenger">
		<route edges="49574 gneE2 -gneE1 49566" />
	</vehicle>
	<vehicle depart="0.1" departLane="0" departPos="15.645440422259895" departSpeed="6.868955183877054" id="203" type="passenger">
		<route edges="49564 gneE1 -gneE3 49568" />
	</vehicle>
</routes>