<routes>
	<vehicle depart="0.1" departLane="0" departPos="60.6191554148608" departSpeed="9.157076883042816" id="201" type="passenger">
		<route edges="49574 gneE2 -gneE0 49576" />
	</vehicle>
	<vehicle depart="0.1" departLane="0" departPos="49.651532513739625" departSpeed="7.190017706851947" id="202" type="passenger">
		<route edges="49578 gneE0 -gneE1 49566" />
	</vehicle>
	<vehicle depart="0.1" departLane="0" departPos="106.2392741508895" departSpeed="6.038059495885577" id="203" type="passenger">
		<route edges="49564 gneE1 -gneE2 49572" />
	</vehicle>
	<vehicle depart="0.1" departLane="0" departPos="71.68026121788984" departSpeed="7.0409391096242535" id="204" type="passenger">
		<route edges="49564 gneE1 -gneE3 49568" />
	</vehicle>
	<vehicle depart="0.1" departLane="0" departPos="43.91515766155122" departSpeed="7.074807003880256" id="205" type="passenger">
		<route edges="49564 gneE1 -gneE3 49568" />
	</vehicle>
</routes>