<routes>
	<vehicle depart="0.1" departLane="0" departPos="81.191522759103" departSpeed="8.720199615698604" id="201" type="passenger">
		<route edges="49574 gneE2 -gneE1 49566" />
	</vehicle>
	<vehicle depart="0.1" departLane="0" departPos="55.82354967865091" departSpeed="8.585177588404035" id="202" type="passenger">
		<route edges="49578 gneE0 -gneE3 49568" />
	</vehicle>
	<vehicle depart="0.1" departLane="0" departPos="67.02128760239518" departSpeed="7.350038310433938" id="203" type="passenger">
		<route edges="49564 gneE1 -gneE3 49568" />
	</vehicle>
</routes>