<routes>
	<vehicle depart="0.1" departLane="0" departPos="82.55270780594735" departSpeed="7.535281762222537" id="201" type="passenger">
		<route edges="49574 gneE2 -gneE1 49566" />
	</vehicle>
	<vehicle depart="0.1" departLane="0" departPos="58.25493965628682" departSpeed="6.9289040113835085" id="202" type="passenger">
		<route edges="49574 gneE2 -gneE1 49566" />
	</vehicle>
	<vehicle depart="0.1" departLane="0" departPos="109.87516642028768" departSpeed="8.308644302425083" id="203" type="passenger">
		<route edges="49564 gneE1 -gneE2 49572" />
	</vehicle>
	<vehicle depart="0.1" departLane="0" departPos="88.99924895295459" departSpeed="8.424618640980178" id="204" type="passenger">
		<route edges="49564 gneE1 -gneE3 49568" />
	</vehicle>
</routes>