<routes>
	<vehicle depart="0.1" departLane="0" departPos="89.0752044981523" departSpeed="6.450844153404596" id="201" type="passenger">
		<route edges="49574 gneE2 -gneE1 49566" />
	</vehicle>
	<vehicle depart="0.1" departLane="0" departPos="63.48654229045272" departSpeed="8.984047601098657" id="202" type="passenger">
		<route edges="49578 gneE0 -gneE1 49566" />
	</vehicle>
	<vehicle depart="0.1" departLane="0" departPos="37.49140703243607" departSpeed="8.000616962445616" id="203" type="passenger">
		<route edges="49564 gneE1 -gneE2 49572" />
	</vehicle>
</routes>