<routes>
	<vehicle depart="0.1" departLane="0" departPos="85.85927965803342" departSpeed="6.06787155153158" id="201" type="passenger">
		<route edges="49574 gneE2 -gneE1 49566" />
	</vehicle>
	<vehicle depart="0.1" departLane="0" departPos="77.55194052619186" departSpeed="8.361979168120271" id="202" type="passenger">
		<route edges="49564 gneE1 -gneE2 49572" />
	</vehicle>
</routes>