<routes>
	<vehicle depart="0.1" departLane="0" departPos="66.22871557875905" departSpeed="6.0081547159497575" id="201" type="passenger">
		<route edges="49574 gneE2 -gneE0 49576" />
	</vehicle>
	<vehicle depart="0.1" departLane="0" departPos="22.880964654209535" departSpeed="6.153631970517639" id="202" type="passenger">
		<route edges="49574 gneE2 -gneE1 49566" />
	</vehicle>
	<vehicle depart="0.1" departLane="0" departPos="78.55889119273712" departSpeed="9.18568980157074" id="203" type="passenger">
		<route edges="49578 gneE0 -gneE3 49568" />
	</vehicle>
	<vehicle depart="0.1" departLane="0" departPos="56.31025515162551" departSpeed="7.510010717989237" id="204" type="passenger">
		<route edges="49578 gneE0 -gneE1 49566" />
	</vehicle>
	<vehicle depart="0.1" departLane="0" departPos="114.2007849042848" departSpeed="8.302744213887276" id="205" type="passenger">
		<route edges="49564 gneE1 -gneE3 49568" />
	</vehicle>
	<vehicle depart="0.1" departLane="0" departPos="58.79242194568606" departSpeed="7.210909110779276" id="206" type="passenger">
		<route edges="49564 gneE1 -gneE2 49572" />
	</vehicle>
</routes>