<routes>
	<vehicle depart="0.1" departLane="0" departPos="79.68482103178422" departSpeed="9.056419819852888" id="201" type="passenger">
		<route edges="49574 gneE2 -gneE1 49566" />
	</vehicle>
	<vehicle depart="0.1" departLane="0" departPos="49.94469746873952" departSpeed="9.618727527000836" id="202" type="passenger">
		<route edges="49578 gneE0 -gneE3 49568" />
	</vehicle>
	<vehicle depart="0.1" departLane="0" departPos="12.54184181372625" departSpeed="7.369629547424828" id="203" type="passenger">
		<route edges="49564 gneE1 -gneE2 49572" />
	</vehicle>
</routes>