<routes>
	<vehicle depart="0.1" departLane="0" departPos="79.13276176785766" departSpeed="7.229421287538479" id="201" type="passenger">
		<route edges="49574 gneE2 -gneE1 49566" />
	</vehicle>
</routes>