<routes>
	<vehicle depart="0.1" departLane="0" departPos="3.1956755939060457" departSpeed="9.66777058186748" id="201" type="passenger">
		<route edges="49574 gneE2 -gneE1 49566" />
	</vehicle>
	<vehicle depart="0.1" departLane="0" departPos="80.00406396725941" departSpeed="9.149462941259198" id="202" type="passenger">
		<route edges="49578 gneE0 -gneE3 49568" />
	</vehicle>
	<vehicle depart="0.1" departLane="0" departPos="38.4597090685648" departSpeed="7.051944897188129" id="203" type="passenger">
		<route edges="49578 gneE0 -gneE1 49566" />
	</vehicle>
	<vehicle depart="0.1" departLane="0" departPos="9.261587933061861" departSpeed="7.682008249455418" id="204" type="passenger">
		<route edges="49564 gneE1 -gneE2 49572" />
	</vehicle>
</routes>