<routes>
	<vehicle depart="0.1" departLane="0" departPos="29.723980203914877" departSpeed="9.050734270440792" id="201" type="passenger">
		<route edges="49574 gneE2 -gneE1 49566" />
	</vehicle>
	<vehicle depart="0.1" departLane="0" departPos="4.702100761490421" departSpeed="6.280715210316947" id="202" type="passenger">
		<route edges="49574 gneE2 -gneE1 49566" />
	</vehicle>
	<vehicle depart="0.1" departLane="0" departPos="3.2969925299068166" departSpeed="8.179140778003866" id="203" type="passenger">
		<route edges="49578 gneE0 -gneE3 49568" />
	</vehicle>
	<vehicle depart="0.1" departLane="0" departPos="102.90531474388101" departSpeed="8.095134839783654" id="204" type="passenger">
		<route edges="49564 gneE1 -gneE3 49568" />
	</vehicle>
	<vehicle depart="0.1" departLane="0" departPos="65.26587088266263" departSpeed="9.054313957797756" id="205" type="passenger">
		<route edges="49564 gneE1 -gneE2 49572" />
	</vehicle>
</routes>