<routes>
	<vehicle depart="0.1" departLane="0" departPos="87.44049370106495" departSpeed="8.94976470523748" id="201" type="passenger">
		<route edges="49574 gneE2 -gneE1 49566" />
	</vehicle>
	<vehicle depart="0.1" departLane="0" departPos="114.48502425095432" departSpeed="6.506141934587232" id="202" type="passenger">
		<route edges="49564 gneE1 -gneE2 49572" />
	</vehicle>
	<vehicle depart="0.1" departLane="0" departPos="39.22769875231205" departSpeed="8.75339145763464" id="203" type="passenger">
		<route edges="49564 gneE1 -gneE2 49572" />
	</vehicle>
</routes>