<routes>
	<vehicle depart="0.1" departLane="0" departPos="26.46158934890066" departSpeed="9.97573509986336" id="201" type="passenger">
		<route edges="49578 gneE0 -gneE3 49568" />
	</vehicle>
	<vehicle depart="0.1" departLane="0" departPos="114.19294126998948" departSpeed="8.38516170251506" id="202" type="passenger">
		<route edges="49564 gneE1 -gneE3 49568" />
	</vehicle>
	<vehicle depart="0.1" departLane="0" departPos="21.81461565063553" departSpeed="8.374960352852195" id="203" type="passenger">
		<route edges="49564 gneE1 -gneE2 49572" />
	</vehicle>
</routes>