<routes>
	<vehicle depart="0.1" departLane="0" departPos="57.62416964190681" departSpeed="7.051895917406329" id="201" type="passenger">
		<route edges="49574 gneE2 -gneE1 49566" />
	</vehicle>
	<vehicle depart="0.1" departLane="0" departPos="77.6299595003772" departSpeed="9.947721866149907" id="202" type="passenger">
		<route edges="49578 gneE0 -gneE3 49568" />
	</vehicle>
	<vehicle depart="0.1" departLane="0" departPos="62.633915614785366" departSpeed="8.021523214820657" id="203" type="passenger">
		<route edges="49578 gneE0 -gneE3 49568" />
	</vehicle>
	<vehicle depart="0.1" departLane="0" departPos="87.10659057815171" departSpeed="9.680552186150209" id="204" type="passenger">
		<route edges="49564 gneE1 -gneE3 49568" />
	</vehicle>
</routes>