<routes>
	<vehicle depart="0.1" departLane="0" departPos="76.23866698355786" departSpeed="8.058632080516949" id="201" type="passenger">
		<route edges="49574 gneE2 -gneE1 49566" />
	</vehicle>
	<vehicle depart="0.1" departLane="0" departPos="62.54239795227652" departSpeed="6.599150136966211" id="202" type="passenger">
		<route edges="49574 gneE2 -gneE1 49566" />
	</vehicle>
</routes>