<routes>
	<vehicle depart="0.1" departLane="0" departPos="87.03192146747521" departSpeed="7.916043684908278" id="201" type="passenger">
		<route edges="49574 gneE2 -gneE1 49566" />
	</vehicle>
	<vehicle depart="0.1" departLane="0" departPos="34.22283305426187" departSpeed="8.186714238867683" id="202" type="passenger">
		<route edges="49578 gneE0 -gneE1 49566" />
	</vehicle>
	<vehicle depart="0.1" departLane="0" departPos="23.8036728341781" departSpeed="9.151386725638725" id="203" type="passenger">
		<route edges="49564 gneE1 -gneE3 49568" />
	</vehicle>
</routes>