<routes>
	<vehicle depart="0.1" departLane="0" departPos="45.62009739594832" departSpeed="7.403767804113985" id="201" type="passenger">
		<route edges="49578 gneE0 -gneE1 49566" />
	</vehicle>
	<vehicle depart="0.1" departLane="0" departPos="106.3441870261615" departSpeed="6.372282548659333" id="202" type="passenger">
		<route edges="49564 gneE1 -gneE3 49568" />
	</vehicle>
</routes>