<routes>
	<vehicle depart="0.1" departLane="0" departPos="91.73392434078694" departSpeed="6.552677313935568" id="201" type="passenger">
		<route edges="49574 gneE2 -gneE0 49576" />
	</vehicle>
	<vehicle depart="0.1" departLane="0" departPos="80.55429585437369" departSpeed="8.273673628255175" id="202" type="passenger">
		<route edges="49578 gneE0 -gneE1 49566" />
	</vehicle>
	<vehicle depart="0.1" departLane="0" departPos="12.074756570299542" departSpeed="8.823978299827694" id="203" type="passenger">
		<route edges="49564 gneE1 -gneE2 49572" />
	</vehicle>
</routes>