<routes>
	<vehicle depart="0.1" departLane="0" departPos="51.29860053684811" departSpeed="6.3408680954464876" id="201" type="passenger">
		<route edges="49578 gneE0 -gneE3 49568" />
	</vehicle>
	<vehicle depart="0.1" departLane="0" departPos="112.8294927573419" departSpeed="8.517266695505993" id="202" type="passenger">
		<route edges="49564 gneE1 -gneE2 49572" />
	</vehicle>
	<vehicle depart="0.1" departLane="0" departPos="26.68771168420251" departSpeed="7.048681578335428" id="203" type="passenger">
		<route edges="49564 gneE1 -gneE3 49568" />
	</vehicle>
</routes>