<routes>
	<vehicle depart="0.1" departLane="0" departPos="16.498487180673436" departSpeed="8.055450931824799" id="201" type="passenger">
		<route edges="49574 gneE2 -gneE0 49576" />
	</vehicle>
	<vehicle depart="0.1" departLane="0" departPos="49.34433795690725" departSpeed="9.2336455404323" id="202" type="passenger">
		<route edges="49578 gneE0 -gneE3 49568" />
	</vehicle>
	<vehicle depart="0.1" departLane="0" departPos="28.979176484242576" departSpeed="7.44272600577464" id="203" type="passenger">
		<route edges="49578 gneE0 -gneE1 49566" />
	</vehicle>
	<vehicle depart="0.1" departLane="0" departPos="110.63215903795188" departSpeed="6.068927550280375" id="204" type="passenger">
		<route edges="49564 gneE1 -gneE3 49568" />
	</vehicle>
</routes>