<routes>
	<vehicle depart="0.1" departLane="0" departPos="76.53056460096602" departSpeed="6.694413637604644" id="201" type="passenger">
		<route edges="49574 gneE2 -gneE1 49566" />
	</vehicle>
	<vehicle depart="0.1" departLane="0" departPos="5.68482507091953" departSpeed="9.937676183154249" id="202" type="passenger">
		<route edges="49564 gneE1 -gneE3 49568" />
	</vehicle>
</routes>