<routes>
	<vehicle depart="0.1" departLane="0" departPos="83.13688343575579" departSpeed="6.340031676612366" id="201" type="passenger">
		<route edges="49578 gneE0 -gneE1 49566" />
	</vehicle>
	<vehicle depart="0.1" departLane="0" departPos="47.44189672846994" departSpeed="9.638718175347467" id="202" type="passenger">
		<route edges="49564 gneE1 -gneE2 49572" />
	</vehicle>
</routes>