<routes>
	<vehicle depart="0.1" departLane="0" departPos="30.924846086202564" departSpeed="8.742177363735236" id="201" type="passenger">
		<route edges="49574 gneE2 -gneE0 49576" />
	</vehicle>
	<vehicle depart="0.1" departLane="0" departPos="71.03183961742543" departSpeed="9.80354855833137" id="202" type="passenger">
		<route edges="49578 gneE0 -gneE1 49566" />
	</vehicle>
	<vehicle depart="0.1" departLane="0" departPos="48.89579066022033" departSpeed="8.310252217971549" id="203" type="passenger">
		<route edges="49578 gneE0 -gneE1 49566" />
	</vehicle>
	<vehicle depart="0.1" departLane="0" departPos="54.15284059726969" departSpeed="8.753624166191308" id="204" type="passenger">
		<route edges="49564 gneE1 -gneE3 49568" />
	</vehicle>
	<vehicle depart="0.1" departLane="0" departPos="33.76812797098246" departSpeed="8.470496993964863" id="205" type="passenger">
		<route edges="49564 gneE1 -gneE3 49568" />
	</vehicle>
</routes>