<routes>
	<vehicle depart="0.1" departLane="0" departPos="71.85785596012113" departSpeed="6.122514532660526" id="201" type="passenger">
		<route edges="49578 gneE0 -gneE1 49566" />
	</vehicle>
	<vehicle depart="0.1" departLane="0" departPos="8.249410914038691" departSpeed="6.9475071404849755" id="202" type="passenger">
		<route edges="49578 gneE0 -gneE3 49568" />
	</vehicle>
	<vehicle depart="0.1" departLane="0" departPos="91.57183012225906" departSpeed="7.468215284552545" id="203" type="passenger">
		<route edges="49564 gneE1 -gneE3 49568" />
	</vehicle>
	<vehicle depart="0.1" departLane="0" departPos="57.79557034530346" departSpeed="9.525164847725907" id="204" type="passenger">
		<route edges="49564 gneE1 -gneE3 49568" />
	</vehicle>
</routes>