<routes>
	<vehicle depart="0.1" departLane="0" departPos="70.09596766678426" departSpeed="7.876039913363329" id="201" type="passenger">
		<route edges="49578 gneE0 -gneE1 49566" />
	</vehicle>
	<vehicle depart="0.1" departLane="0" departPos="40.74813767912105" departSpeed="7.05638912436592" id="202" type="passenger">
		<route edges="49578 gneE0 -gneE3 49568" />
	</vehicle>
	<vehicle depart="0.1" departLane="0" departPos="42.70414271436741" departSpeed="7.678292538509362" id="203" type="passenger">
		<route edges="49564 gneE1 -gneE2 49572" />
	</vehicle>
</routes>