<routes>
	<vehicle depart="0.1" departLane="0" departPos="16.909418680895072" departSpeed="6.366656674987922" id="201" type="passenger">
		<route edges="49574 gneE2 -gneE1 49566" />
	</vehicle>
	<vehicle depart="0.1" departLane="0" departPos="78.1281131005635" departSpeed="6.240884874470731" id="202" type="passenger">
		<route edges="49578 gneE0 -gneE3 49568" />
	</vehicle>
</routes>