<routes>
	<vehicle depart="0.1" departLane="0" departPos="73.82479320568103" departSpeed="6.7914736340659285" id="201" type="passenger">
		<route edges="49578 gneE0 -gneE1 49566" />
	</vehicle>
	<vehicle depart="0.1" departLane="0" departPos="45.90536975839679" departSpeed="8.207025002356673" id="202" type="passenger">
		<route edges="49578 gneE0 -gneE1 49566" />
	</vehicle>
	<vehicle depart="0.1" departLane="0" departPos="24.26555590525752" departSpeed="8.292456788565131" id="203" type="passenger">
		<route edges="49578 gneE0 -gneE1 49566" />
	</vehicle>
	<vehicle depart="0.1" departLane="0" departPos="65.31517532487038" departSpeed="8.252277809709295" id="204" type="passenger">
		<route edges="49564 gneE1 -gneE2 49572" />
	</vehicle>
</routes>