<routes>
	<vehicle depart="0.1" departLane="0" departPos="21.429236584750257" departSpeed="6.3517581474959695" id="201" type="passenger">
		<route edges="49574 gneE2 -gneE0 49576" />
	</vehicle>
	<vehicle depart="0.1" departLane="0" departPos="108.25012262591666" departSpeed="9.728403668929387" id="202" type="passenger">
		<route edges="49564 gneE1 -gneE2 49572" />
	</vehicle>
</routes>