<routes>
	<vehicle depart="0.1" departLane="0" departPos="85.85449124259144" departSpeed="7.383658598952154" id="201" type="passenger">
		<route edges="49574 gneE2 -gneE1 49566" />
	</vehicle>
	<vehicle depart="0.1" departLane="0" departPos="60.940819359241665" departSpeed="9.224794938627792" id="202" type="passenger">
		<route edges="49578 gneE0 -gneE1 49566" />
	</vehicle>
	<vehicle depart="0.1" departLane="0" departPos="14.84077025706614" departSpeed="6.1982334354995805" id="203" type="passenger">
		<route edges="49564 gneE1 -gneE3 49568" />
	</vehicle>
</routes>