<routes>
	<vehicle depart="0.1" departLane="0" departPos="67.03475724161564" departSpeed="8.918516509481963" id="201" type="passenger">
		<route edges="49578 gneE0 -gneE3 49568" />
	</vehicle>
	<vehicle depart="0.1" departLane="0" departPos="109.35504534329294" departSpeed="6.404113610274138" id="202" type="passenger">
		<route edges="49564 gneE1 -gneE2 49572" />
	</vehicle>
	<vehicle depart="0.1" departLane="0" departPos="71.04164739990847" departSpeed="6.815712553613876" id="203" type="passenger">
		<route edges="49564 gneE1 -gneE3 49568" />
	</vehicle>
	<vehicle depart="0.1" departLane="0" departPos="29.093927103446482" departSpeed="9.80714701704895" id="204" type="passenger">
		<route edges="49564 gneE1 -gneE3 49568" />
	</vehicle>
</routes>