<routes>
	<vehicle depart="0.1" departLane="0" departPos="58.77563074520624" departSpeed="8.643977730050004" id="201" type="passenger">
		<route edges="49574 gneE2 -gneE1 49566" />
	</vehicle>
	<vehicle depart="0.1" departLane="0" departPos="79.54075985156047" departSpeed="6.188686854712474" id="202" type="passenger">
		<route edges="49578 gneE0 -gneE3 49568" />
	</vehicle>
	<vehicle depart="0.1" departLane="0" departPos="28.110731793853944" departSpeed="8.510948604295708" id="203" type="passenger">
		<route edges="49578 gneE0 -gneE1 49566" />
	</vehicle>
	<vehicle depart="0.1" departLane="0" departPos="12.775030870451413" departSpeed="6.439029082189707" id="204" type="passenger">
		<route edges="49578 gneE0 -gneE3 49568" />
	</vehicle>
	<vehicle depart="0.1" departLane="0" departPos="85.54663958388008" departSpeed="8.221683789062325" id="205" type="passenger">
		<route edges="49564 gneE1 -gneE3 49568" />
	</vehicle>
</routes>