<routes>
	<vehicle depart="0.1" departLane="0" departPos="55.816017301843644" departSpeed="6.307845735612062" id="201" type="passenger">
		<route edges="49574 gneE2 -gneE0 49576" />
	</vehicle>
	<vehicle depart="0.1" departLane="0" departPos="71.16541441242867" departSpeed="8.318843232855924" id="202" type="passenger">
		<route edges="49578 gneE0 -gneE1 49566" />
	</vehicle>
	<vehicle depart="0.1" departLane="0" departPos="29.556761486940317" departSpeed="8.189979822633504" id="203" type="passenger">
		<route edges="49578 gneE0 -gneE3 49568" />
	</vehicle>
	<vehicle depart="0.1" departLane="0" departPos="29.671021791594924" departSpeed="9.695234267762011" id="204" type="passenger">
		<route edges="49564 gneE1 -gneE3 49568" />
	</vehicle>
</routes>