<routes>
	<vehicle depart="0.1" departLane="0" departPos="88.25279100769887" departSpeed="7.884040169780697" id="201" type="passenger">
		<route edges="49574 gneE2 -gneE1 49566" />
	</vehicle>
	<vehicle depart="0.1" departLane="0" departPos="39.67609602104884" departSpeed="6.319118805739221" id="202" type="passenger">
		<route edges="49574 gneE2 -gneE0 49576" />
	</vehicle>
	<vehicle depart="0.1" departLane="0" departPos="0.6403724504987593" departSpeed="7.834189303898727" id="203" type="passenger">
		<route edges="49578 gneE0 -gneE3 49568" />
	</vehicle>
	<vehicle depart="0.1" departLane="0" departPos="43.82369955749695" departSpeed="6.400909821520599" id="204" type="passenger">
		<route edges="49564 gneE1 -gneE3 49568" />
	</vehicle>
</routes>