<routes>
	<vehicle depart="0.1" departLane="0" departPos="74.07816539235692" departSpeed="8.19134307149137" id="201" type="passenger">
		<route edges="49574 gneE2 -gneE0 49576" />
	</vehicle>
	<vehicle depart="0.1" departLane="0" departPos="50.53597871845101" departSpeed="7.996346369925389" id="202" type="passenger">
		<route edges="49574 gneE2 -gneE1 49566" />
	</vehicle>
	<vehicle depart="0.1" departLane="0" departPos="5.593734662949444" departSpeed="6.382630601030582" id="203" type="passenger">
		<route edges="49578 gneE0 -gneE3 49568" />
	</vehicle>
	<vehicle depart="0.1" departLane="0" departPos="113.42410189664278" departSpeed="7.957984172471859" id="204" type="passenger">
		<route edges="49564 gneE1 -gneE3 49568" />
	</vehicle>
</routes>