<routes>
	<vehicle depart="0.1" departLane="0" departPos="72.81625335026949" departSpeed="6.5480056111790095" id="201" type="passenger">
		<route edges="49574 gneE2 -gneE1 49566" />
	</vehicle>
	<vehicle depart="0.1" departLane="0" departPos="10.09615581631148" departSpeed="7.042752648015567" id="202" type="passenger">
		<route edges="49574 gneE2 -gneE1 49566" />
	</vehicle>
	<vehicle depart="0.1" departLane="0" departPos="40.40917394143253" departSpeed="6.910467084911355" id="203" type="passenger">
		<route edges="49578 gneE0 -gneE1 49566" />
	</vehicle>
	<vehicle depart="0.1" departLane="0" departPos="117.6613071668842" departSpeed="7.78037161419881" id="204" type="passenger">
		<route edges="49564 gneE1 -gneE3 49568" />
	</vehicle>
</routes>