<routes>
	<vehicle depart="0.1" departLane="0" departPos="45.96191668936632" departSpeed="8.364850105649326" id="201" type="passenger">
		<route edges="49574 gneE2 -gneE0 49576" />
	</vehicle>
	<vehicle depart="0.1" departLane="0" departPos="74.96838781978951" departSpeed="9.401008538775748" id="202" type="passenger">
		<route edges="49578 gneE0 -gneE1 49566" />
	</vehicle>
	<vehicle depart="0.1" departLane="0" departPos="93.38239411261526" departSpeed="8.108583640403825" id="203" type="passenger">
		<route edges="49564 gneE1 -gneE2 49572" />
	</vehicle>
	<vehicle depart="0.1" departLane="0" departPos="11.901369846648649" departSpeed="7.120124162236355" id="204" type="passenger">
		<route edges="49564 gneE1 -gneE2 49572" />
	</vehicle>
</routes>