<routes>
	<vehicle depart="0.1" departLane="0" departPos="76.38212191079879" departSpeed="7.189539005593623" id="201" type="passenger">
		<route edges="49574 gneE2 -gneE1 49566" />
	</vehicle>
	<vehicle depart="0.1" departLane="0" departPos="43.93668478389924" departSpeed="7.634235537204814" id="202" type="passenger">
		<route edges="49574 gneE2 -gneE0 49576" />
	</vehicle>
	<vehicle depart="0.1" departLane="0" departPos="24.37223793073342" departSpeed="7.253577197974694" id="203" type="passenger">
		<route edges="49578 gneE0 -gneE1 49566" />
	</vehicle>
	<vehicle depart="0.1" departLane="0" departPos="104.3135052915855" departSpeed="7.709750241380796" id="204" type="passenger">
		<route edges="49564 gneE1 -gneE3 49568" />
	</vehicle>
	<vehicle depart="0.1" departLane="0" departPos="29.55224288809478" departSpeed="8.800319220541166" id="205" type="passenger">
		<route edges="49564 gneE1 -gneE3 49568" />
	</vehicle>
</routes>