<routes>
	<vehicle depart="0.1" departLane="0" departPos="85.50510111687174" departSpeed="6.388841002002859" id="201" type="passenger">
		<route edges="49578 gneE0 -gneE1 49566" />
	</vehicle>
	<vehicle depart="0.1" departLane="0" departPos="96.4703615819042" departSpeed="7.362656716400635" id="202" type="passenger">
		<route edges="49564 gneE1 -gneE2 49572" />
	</vehicle>
	<vehicle depart="0.1" departLane="0" departPos="40.67173371352579" departSpeed="7.1890602525237135" id="203" type="passenger">
		<route edges="49564 gneE1 -gneE2 49572" />
	</vehicle>
</routes>