<routes>
	<vehicle depart="0.1" departLane="0" departPos="76.03168539960093" departSpeed="7.072028250100321" id="201" type="passenger">
		<route edges="49574 gneE2 -gneE1 49566" />
	</vehicle>
	<vehicle depart="0.1" departLane="0" departPos="73.18306426744937" departSpeed="7.652758563804466" id="202" type="passenger">
		<route edges="49578 gneE0 -gneE3 49568" />
	</vehicle>
	<vehicle depart="0.1" departLane="0" departPos="24.418503373813692" departSpeed="6.164813543519391" id="203" type="passenger">
		<route edges="49578 gneE0 -gneE1 49566" />
	</vehicle>
</routes>