<routes>
	<vehicle depart="0.1" departLane="0" departPos="80.14005955747193" departSpeed="7.0558576484941256" id="201" type="passenger">
		<route edges="49574 gneE2 -gneE0 49576" />
	</vehicle>
	<vehicle depart="0.1" departLane="0" departPos="23.545006803358653" departSpeed="6.246980540744431" id="202" type="passenger">
		<route edges="49574 gneE2 -gneE0 49576" />
	</vehicle>
	<vehicle depart="0.1" departLane="0" departPos="38.730795926954144" departSpeed="9.347823630684928" id="203" type="passenger">
		<route edges="49578 gneE0 -gneE3 49568" />
	</vehicle>
	<vehicle depart="0.1" departLane="0" departPos="48.995424289202404" departSpeed="6.865191388543312" id="204" type="passenger">
		<route edges="49564 gneE1 -gneE2 49572" />
	</vehicle>
</routes>