<routes>
	<vehicle depart="0.1" departLane="0" departPos="61.949744387710794" departSpeed="9.518235282374832" id="201" type="passenger">
		<route edges="49574 gneE2 -gneE1 49566" />
	</vehicle>
	<vehicle depart="0.1" departLane="0" departPos="103.60575661033022" departSpeed="6.8242136011803805" id="202" type="passenger">
		<route edges="49564 gneE1 -gneE3 49568" />
	</vehicle>
</routes>