<routes>
	<vehicle depart="0.1" departLane="0" departPos="81.87864510191734" departSpeed="6.7207364878724025" id="201" type="passenger">
		<route edges="49578 gneE0 -gneE3 49568" />
	</vehicle>
	<vehicle depart="0.1" departLane="0" departPos="9.350439437756165" departSpeed="9.441324159599668" id="202" type="passenger">
		<route edges="49578 gneE0 -gneE1 49566" />
	</vehicle>
	<vehicle depart="0.1" departLane="0" departPos="5.815070458356928" departSpeed="9.069765000048276" id="203" type="passenger">
		<route edges="49564 gneE1 -gneE3 49568" />
	</vehicle>
</routes>