<routes>
	<vehicle depart="0.1" departLane="0" departPos="87.21578252185107" departSpeed="8.65346060671665" id="201" type="passenger">
		<route edges="49574 gneE2 -gneE1 49566" />
	</vehicle>
	<vehicle depart="0.1" departLane="0" departPos="24.567387173774442" departSpeed="7.94586660075414" id="202" type="passenger">
		<route edges="49574 gneE2 -gneE0 49576" />
	</vehicle>
	<vehicle depart="0.1" departLane="0" departPos="69.14981722401194" departSpeed="7.956919394358003" id="203" type="passenger">
		<route edges="49578 gneE0 -gneE1 49566" />
	</vehicle>
	<vehicle depart="0.1" departLane="0" departPos="20.03617963058978" departSpeed="8.25388316389019" id="204" type="passenger">
		<route edges="49578 gneE0 -gneE3 49568" />
	</vehicle>
</routes>