<routes>
	<vehicle depart="0.1" departLane="0" departPos="74.85280896056875" departSpeed="7.078329600071269" id="201" type="passenger">
		<route edges="49578 gneE0 -gneE1 49566" />
	</vehicle>
	<vehicle depart="0.1" departLane="0" departPos="65.37138519755686" departSpeed="6.153949907812883" id="202" type="passenger">
		<route edges="49564 gneE1 -gneE3 49568" />
	</vehicle>
	<vehicle depart="0.1" departLane="0" departPos="27.58287991204662" departSpeed="7.295895178668769" id="203" type="passenger">
		<route edges="49564 gneE1 -gneE3 49568" />
	</vehicle>
</routes>