<routes>
	<vehicle depart="0.1" departLane="0" departPos="1.3729391567746774" departSpeed="6.568629409769221" id="201" type="passenger">
		<route edges="49574 gneE2 -gneE0 49576" />
	</vehicle>
	<vehicle depart="0.1" departLane="0" departPos="44.658055538017365" departSpeed="8.338905817148" id="202" type="passenger">
		<route edges="49578 gneE0 -gneE3 49568" />
	</vehicle>
	<vehicle depart="0.1" departLane="0" departPos="10.994357454261042" departSpeed="6.78374678457175" id="203" type="passenger">
		<route edges="49578 gneE0 -gneE3 49568" />
	</vehicle>
	<vehicle depart="0.1" departLane="0" departPos="104.96381336463662" departSpeed="8.314916264095455" id="204" type="passenger">
		<route edges="49564 gneE1 -gneE3 49568" />
	</vehicle>
	<vehicle depart="0.1" departLane="0" departPos="50.77041547596049" departSpeed="8.710609641435614" id="205" type="passenger">
		<route edges="49564 gneE1 -gneE3 49568" />
	</vehicle>
	<vehicle depart="0.1" departLane="0" departPos="3.9105017165501152" departSpeed="9.348675275128748" id="206" type="passenger">
		<route edges="49564 gneE1 -gneE2 49572" />
	</vehicle>
</routes>