<routes>
	<vehicle depart="0.1" departLane="0" departPos="61.49944700762316" departSpeed="7.426837094083354" id="201" type="passenger">
		<route edges="49574 gneE2 -gneE1 49566" />
	</vehicle>
	<vehicle depart="0.1" departLane="0" departPos="71.24694275898997" departSpeed="7.2016780744885" id="202" type="passenger">
		<route edges="49578 gneE0 -gneE3 49568" />
	</vehicle>
	<vehicle depart="0.1" departLane="0" departPos="13.88672302957552" departSpeed="7.727200058578839" id="203" type="passenger">
		<route edges="49578 gneE0 -gneE3 49568" />
	</vehicle>
	<vehicle depart="0.1" departLane="0" departPos="39.18837435779916" departSpeed="8.741642637736636" id="204" type="passenger">
		<route edges="49564 gneE1 -gneE2 49572" />
	</vehicle>
</routes>