<routes>
	<vehicle depart="0.1" departLane="0" departPos="78.17718590685426" departSpeed="9.70990001277488" id="201" type="passenger">
		<route edges="49578 gneE0 -gneE1 49566" />
	</vehicle>
	<vehicle depart="0.1" departLane="0" departPos="76.5741465739149" departSpeed="6.582371016914639" id="202" type="passenger">
		<route edges="49564 gneE1 -gneE3 49568" />
	</vehicle>
	<vehicle depart="0.1" departLane="0" departPos="43.11692706919972" departSpeed="6.433217624795956" id="203" type="passenger">
		<route edges="49564 gneE1 -gneE3 49568" />
	</vehicle>
	<vehicle depart="0.1" departLane="0" departPos="16.721306082549965" departSpeed="6.988977420866423" id="204" type="passenger">
		<route edges="49564 gneE1 -gneE3 49568" />
	</vehicle>
</routes>