<routes>
	<vehicle depart="0.1" departLane="0" departPos="22.743095056404044" departSpeed="7.025010702862139" id="201" type="passenger">
		<route edges="49574 gneE2 -gneE1 49566" />
	</vehicle>
	<vehicle depart="0.1" departLane="0" departPos="34.761125833057065" departSpeed="8.913782623182222" id="202" type="passenger">
		<route edges="49578 gneE0 -gneE1 49566" />
	</vehicle>
	<vehicle depart="0.1" departLane="0" departPos="103.95284633750401" departSpeed="8.840015498741675" id="203" type="passenger">
		<route edges="49564 gneE1 -gneE3 49568" />
	</vehicle>
	<vehicle depart="0.1" departLane="0" departPos="49.777710609170846" departSpeed="7.9830230812111935" id="204" type="passenger">
		<route edges="49564 gneE1 -gneE2 49572" />
	</vehicle>
	<vehicle depart="0.1" departLane="0" departPos="6.808821953686781" departSpeed="6.782493136172432" id="205" type="passenger">
		<route edges="49564 gneE1 -gneE2 49572" />
	</vehicle>
</routes>