<routes>
	<vehicle depart="0.1" departLane="0" departPos="75.62491273755751" departSpeed="7.279162742803543" id="201" type="passenger">
		<route edges="49574 gneE2 -gneE1 49566" />
	</vehicle>
	<vehicle depart="0.1" departLane="0" departPos="105.27560575265065" departSpeed="7.364026989053826" id="202" type="passenger">
		<route edges="49564 gneE1 -gneE3 49568" />
	</vehicle>
	<vehicle depart="0.1" departLane="0" departPos="0.8075205868292983" departSpeed="9.133529793495331" id="203" type="passenger">
		<route edges="49564 gneE1 -gneE2 49572" />
	</vehicle>
</routes>