<routes>
	<vehicle depart="0.1" departLane="0" departPos="75.67858037998144" departSpeed="7.365883423864828" id="201" type="passenger">
		<route edges="49574 gneE2 -gneE0 49576" />
	</vehicle>
	<vehicle depart="0.1" departLane="0" departPos="56.382280501502564" departSpeed="9.528261014114033" id="202" type="passenger">
		<route edges="49578 gneE0 -gneE3 49568" />
	</vehicle>
	<vehicle depart="0.1" departLane="0" departPos="39.92944164441617" departSpeed="7.128727817927232" id="203" type="passenger">
		<route edges="49564 gneE1 -gneE3 49568" />
	</vehicle>
</routes>