<routes>
	<vehicle depart="0.1" departLane="0" departPos="20.920762792046034" departSpeed="8.47952733735098" id="201" type="passenger">
		<route edges="49574 gneE2 -gneE0 49576" />
	</vehicle>
	<vehicle depart="0.1" departLane="0" departPos="73.23200523807506" departSpeed="9.525218096745553" id="202" type="passenger">
		<route edges="49578 gneE0 -gneE1 49566" />
	</vehicle>
	<vehicle depart="0.1" departLane="0" departPos="30.167717165917644" departSpeed="9.137144749176244" id="203" type="passenger">
		<route edges="49578 gneE0 -gneE1 49566" />
	</vehicle>
	<vehicle depart="0.1" departLane="0" departPos="61.8373286668959" departSpeed="8.307605735360553" id="204" type="passenger">
		<route edges="49564 gneE1 -gneE3 49568" />
	</vehicle>
</routes>